Alim_Meia_Ponte_5_REDUZIDO/OBSOLETOS/5002086/Transformer.dss
New "Transformer.trf_5286699a" phases=1 windings=3 buses=[mrt_82034475002086trf_5286699a.2, 82034475286699.1.4, 82034475286699.4.2, ] conns=[wye, wye, wye, ] kVs=[7.967434, 0.22, 0.22, ] taps=[1, 1.05, 1.05, ] kVAs=[10, 10, 10, ] %loadloss=1.8 %noloadloss=0.45
New "Transformer.trf_5286707a" phases=3 windings=2 buses=[82034835002086.1.2.3, 82034835286707.1.2.3.4, ] conns=[delta, wye, ] kVs=[13.8, 0.38, ] taps=[1, 1.05, ] kVAs=[45, 45, ] %loadloss=1.522222 %noloadloss=0.3777778
New "Transformer.trf_5286708a" phases=1 windings=3 buses=[mrt_82034845002086trf_5286708a.2, 82034845286708.1.4, 82034845286708.4.2, ] conns=[wye, wye, wye, ] kVs=[7.967434, 0.22, 0.22, ] taps=[1, 1.05, 1.05, ] kVAs=[15, 15, 15, ] %loadloss=1.6 %noloadloss=0.4
New "Transformer.trf_5286718a" phases=3 windings=2 buses=[82053655002086.1.2.3, 82053655286718.1.2.3.4, ] conns=[delta, wye, ] kVs=[13.8, 0.38, ] taps=[1, 1.05, ] kVAs=[45, 45, ] %loadloss=1.522222 %noloadloss=0.3777778
New "Transformer.trf_5286787a" phases=3 windings=2 buses=[82023305002086.1.2.3, 82023305286787.1.2.3.4, ] conns=[delta, wye, ] kVs=[13.8, 0.38, ] taps=[1, 1.05, ] kVAs=[112.5, 112.5, ] %loadloss=1.217778 %noloadloss=0.2977778
New "Transformer.trf_5286788a" phases=3 windings=2 buses=[82023395002086.1.2.3, 82023395286788.1.2.3.4, ] conns=[delta, wye, ] kVs=[13.8, 0.38, ] taps=[1, 1.05, ] kVAs=[112.5, 112.5, ] %loadloss=1.217778 %noloadloss=0.2977778
New "Transformer.trf_5286789a" phases=3 windings=2 buses=[82022295002086.1.2.3, 82022295286789.1.2.3.4, ] conns=[delta, wye, ] kVs=[13.8, 0.38, ] taps=[1, 1.05, ] kVAs=[75, 75, ] %loadloss=1.34 %noloadloss=0.34
New "Transformer.trf_5286790a" phases=3 windings=2 buses=[82022455002086.1.2.3, 82022455286790.1.2.3.4, ] conns=[delta, wye, ] kVs=[13.8, 0.38, ] taps=[1, 1.05, ] kVAs=[150, 150, ] %loadloss=1.126667 %noloadloss=0.28
New "Transformer.trf_5286791a" phases=3 windings=2 buses=[82022605002086.1.2.3, 82022605286791.1.2.3.4, ] conns=[delta, wye, ] kVs=[13.8, 0.38, ] taps=[1, 1.05, ] kVAs=[150, 150, ] %loadloss=1.126667 %noloadloss=0.28
New "Transformer.trf_5286792a" phases=3 windings=2 buses=[82019965002086.1.2.3, 82019965286792.1.2.3.4, ] conns=[delta, wye, ] kVs=[13.8, 0.38, ] taps=[1, 1.05, ] kVAs=[150, 150, ] %loadloss=1.126667 %noloadloss=0.28
New "Transformer.trf_5286793a" phases=3 windings=2 buses=[82020055002086.1.2.3, 82020055286793.1.2.3.4, ] conns=[delta, wye, ] kVs=[13.8, 0.38, ] taps=[1, 1.05, ] kVAs=[75, 75, ] %loadloss=1.34 %noloadloss=0.34
New "Transformer.trf_5286794a" phases=3 windings=2 buses=[82020175002086.1.2.3, 82020175286794.1.2.3.4, ] conns=[delta, wye, ] kVs=[13.8, 0.38, ] taps=[1, 1.05, ] kVAs=[75, 75, ] %loadloss=1.34 %noloadloss=0.34
New "Transformer.trf_5286795a" phases=3 windings=2 buses=[82020405002086.1.2.3, 82020405286795.1.2.3.4, ] conns=[delta, wye, ] kVs=[13.8, 0.38, ] taps=[1, 1.05, ] kVAs=[150, 150, ] %loadloss=1.126667 %noloadloss=0.28
New "Transformer.trf_5286796a" phases=3 windings=2 buses=[82020555002086.1.2.3, 82020555286796.1.2.3.4, ] conns=[delta, wye, ] kVs=[13.8, 0.38, ] taps=[1, 1.05, ] kVAs=[75, 75, ] %loadloss=1.34 %noloadloss=0.34
New "Transformer.trf_5286797a" phases=3 windings=2 buses=[82020675002086.1.2.3, 82020675286797.1.2.3.4, ] conns=[delta, wye, ] kVs=[13.8, 0.38, ] taps=[1, 1.05, ] kVAs=[75, 75, ] %loadloss=1.34 %noloadloss=0.34
New "Transformer.trf_5286798a" phases=3 windings=2 buses=[82021885002086.1.2.3, 82021885286798.1.2.3.4, ] conns=[delta, wye, ] kVs=[13.8, 0.38, ] taps=[1, 1.05, ] kVAs=[75, 75, ] %loadloss=1.34 %noloadloss=0.34
New "Transformer.trf_5286799a" phases=3 windings=2 buses=[82021995002086.1.2.3, 82021995286799.1.2.3.4, ] conns=[delta, wye, ] kVs=[13.8, 0.38, ] taps=[1, 1.05, ] kVAs=[112.5, 112.5, ] %loadloss=1.217778 %noloadloss=0.2977778
New "Transformer.trf_5286800a" phases=3 windings=2 buses=[82024325002086.1.2.3, 82024325286800.1.2.3.4, ] conns=[delta, wye, ] kVs=[13.8, 0.38, ] taps=[1, 1.05, ] kVAs=[112.5, 112.5, ] %loadloss=1.217778 %noloadloss=0.2977778
New "Transformer.trf_5286801a" phases=3 windings=2 buses=[82022225002086.1.2.3, 82022225286801.1.2.3.4, ] conns=[delta, wye, ] kVs=[13.8, 0.38, ] taps=[1, 1.05, ] kVAs=[75, 75, ] %loadloss=1.34 %noloadloss=0.34
New "Transformer.trf_5286802a" phases=3 windings=2 buses=[82021615002086.1.2.3, 82021615286802.1.2.3.4, ] conns=[delta, wye, ] kVs=[13.8, 0.38, ] taps=[1, 1.05, ] kVAs=[75, 75, ] %loadloss=1.34 %noloadloss=0.34
New "Transformer.trf_5286803a" phases=3 windings=2 buses=[82036745002086.1.2.3, 82036745286803.1.2.3.4, ] conns=[delta, wye, ] kVs=[13.8, 0.38, ] taps=[1, 1.05, ] kVAs=[112.5, 112.5, ] %loadloss=1.217778 %noloadloss=0.2977778
New "Transformer.trf_5286804a" phases=3 windings=2 buses=[82033055002086.1.2.3, 82033055286804.1.2.3.4, ] conns=[delta, wye, ] kVs=[13.8, 0.38, ] taps=[1, 1.05, ] kVAs=[112.5, 112.5, ] %loadloss=1.217778 %noloadloss=0.2977778
New "Transformer.trf_5286805a" phases=3 windings=2 buses=[82033395002086.1.2.3, 82033395286805.1.2.3.4, ] conns=[delta, wye, ] kVs=[13.8, 0.38, ] taps=[1, 1.05, ] kVAs=[112.5, 112.5, ] %loadloss=1.217778 %noloadloss=0.2977778
New "Transformer.trf_5286806a" phases=3 windings=2 buses=[82024965002086.1.2.3, 82024965286806.1.2.3.4, ] conns=[delta, wye, ] kVs=[13.8, 0.38, ] taps=[1, 1.05, ] kVAs=[150, 150, ] %loadloss=1.126667 %noloadloss=0.28
New "Transformer.trf_5286807a" phases=3 windings=2 buses=[90855665002086.1.2.3, 90855665286807.1.2.3.4, ] conns=[delta, wye, ] kVs=[13.8, 0.38, ] taps=[1, 1.05, ] kVAs=[112.5, 112.5, ] %loadloss=1.217778 %noloadloss=0.2977778
New "Transformer.trf_5286808a" phases=3 windings=2 buses=[82027905002086.1.2.3, 82027905286808.1.2.3.4, ] conns=[delta, wye, ] kVs=[13.8, 0.38, ] taps=[1, 1.05, ] kVAs=[112.5, 112.5, ] %loadloss=1.217778 %noloadloss=0.2977778
New "Transformer.trf_5286809a" phases=3 windings=2 buses=[82028045002086.1.2.3, 82028045286809.1.2.3.4, ] conns=[delta, wye, ] kVs=[13.8, 0.38, ] taps=[1, 1.05, ] kVAs=[150, 150, ] %loadloss=1.126667 %noloadloss=0.28
New "Transformer.trf_5286810a" phases=3 windings=2 buses=[82028035002086.1.2.3, 82028035286810.1.2.3.4, ] conns=[delta, wye, ] kVs=[13.8, 0.38, ] taps=[1, 1.05, ] kVAs=[112.5, 112.5, ] %loadloss=1.217778 %noloadloss=0.2977778
New "Transformer.trf_5286811a" phases=3 windings=2 buses=[82026685002086.1.2.3, 82026685286811.1.2.3.4, ] conns=[delta, wye, ] kVs=[13.8, 0.38, ] taps=[1, 1.05, ] kVAs=[112.5, 112.5, ] %loadloss=1.217778 %noloadloss=0.2977778
New "Transformer.trf_5286812a" phases=3 windings=2 buses=[82026915002086.1.2.3, 82026915286812.1.2.3.4, ] conns=[delta, wye, ] kVs=[13.8, 0.38, ] taps=[1, 1.05, ] kVAs=[112.5, 112.5, ] %loadloss=1.217778 %noloadloss=0.2977778
New "Transformer.trf_5286813a" phases=3 windings=2 buses=[82028365002086.1.2.3, 82028365286813.1.2.3.4, ] conns=[delta, wye, ] kVs=[13.8, 0.38, ] taps=[1, 1.05, ] kVAs=[75, 75, ] %loadloss=1.34 %noloadloss=0.34
New "Transformer.trf_5286814a" phases=3 windings=2 buses=[82027655002086.1.2.3, 82027655286814.1.2.3.4, ] conns=[delta, wye, ] kVs=[13.8, 0.38, ] taps=[1, 1.05, ] kVAs=[112.5, 112.5, ] %loadloss=1.217778 %noloadloss=0.2977778
New "Transformer.trf_5286815a" phases=3 windings=2 buses=[82027735002086.1.2.3, 82027735286815.1.2.3.4, ] conns=[delta, wye, ] kVs=[13.8, 0.38, ] taps=[1, 1.05, ] kVAs=[112.5, 112.5, ] %loadloss=1.217778 %noloadloss=0.2977778
New "Transformer.trf_5286816a" phases=3 windings=2 buses=[82029355002086.1.2.3, 82029355286816.1.2.3.4, ] conns=[delta, wye, ] kVs=[13.8, 0.38, ] taps=[1, 1.05, ] kVAs=[150, 150, ] %loadloss=1.126667 %noloadloss=0.28
New "Transformer.trf_5286817a" phases=3 windings=2 buses=[82029275002086.1.2.3, 82029275286817.1.2.3.4, ] conns=[delta, wye, ] kVs=[13.8, 0.38, ] taps=[1, 1.05, ] kVAs=[75, 75, ] %loadloss=1.34 %noloadloss=0.34
New "Transformer.trf_5286818a" phases=3 windings=2 buses=[82028855002086.1.2.3, 82028855286818.1.2.3.4, ] conns=[delta, wye, ] kVs=[13.8, 0.38, ] taps=[1, 1.05, ] kVAs=[75, 75, ] %loadloss=1.34 %noloadloss=0.34
New "Transformer.trf_5286819a" phases=3 windings=2 buses=[82027135002086.1.2.3, 82027135286819.1.2.3.4, ] conns=[delta, wye, ] kVs=[13.8, 0.38, ] taps=[1, 1.05, ] kVAs=[112.5, 112.5, ] %loadloss=1.217778 %noloadloss=0.2977778
New "Transformer.trf_5286820a" phases=3 windings=2 buses=[82026625002086.1.2.3, 82026625286820.1.2.3.4, ] conns=[delta, wye, ] kVs=[13.8, 0.38, ] taps=[1, 1.05, ] kVAs=[75, 75, ] %loadloss=1.34 %noloadloss=0.34
New "Transformer.trf_5286821a" phases=3 windings=2 buses=[82025745002086.1.2.3, 82025745286821.1.2.3.4, ] conns=[delta, wye, ] kVs=[13.8, 0.38, ] taps=[1, 1.05, ] kVAs=[112.5, 112.5, ] %loadloss=1.217778 %noloadloss=0.2977778
New "Transformer.trf_5286828a" phases=3 windings=2 buses=[82042655002086.1.2.3, 82042655286828.1.2.3.4, ] conns=[delta, wye, ] kVs=[13.8, 0.38, ] taps=[1, 1.05, ] kVAs=[112.5, 112.5, ] %loadloss=1.217778 %noloadloss=0.2977778
New "Transformer.trf_5286829a" phases=3 windings=2 buses=[81490995002086.1.2.3, 81490995286829.1.2.3.4, ] conns=[delta, wye, ] kVs=[13.8, 0.38, ] taps=[1, 1.05, ] kVAs=[75, 75, ] %loadloss=1.34 %noloadloss=0.34
New "Transformer.trf_5286830a" phases=3 windings=2 buses=[81460505002086.1.2.3, 81460505286830.1.2.3.4, ] conns=[delta, wye, ] kVs=[13.8, 0.38, ] taps=[1, 1.05, ] kVAs=[112.5, 112.5, ] %loadloss=1.217778 %noloadloss=0.2977778
New "Transformer.trf_5286831a" phases=3 windings=2 buses=[82043025002086.1.2.3, 82043025286831.1.2.3.4, ] conns=[delta, wye, ] kVs=[13.8, 0.38, ] taps=[1, 1.05, ] kVAs=[75, 75, ] %loadloss=1.34 %noloadloss=0.34
New "Transformer.trf_5286832a" phases=3 windings=2 buses=[82042575002086.1.2.3, 82042575286832.1.2.3.4, ] conns=[delta, wye, ] kVs=[13.8, 0.38, ] taps=[1, 1.05, ] kVAs=[75, 75, ] %loadloss=1.34 %noloadloss=0.34
New "Transformer.trf_5286833a" phases=3 windings=2 buses=[82041995002086.1.2.3, 82041995286833.1.2.3.4, ] conns=[delta, wye, ] kVs=[13.8, 0.38, ] taps=[1, 1.05, ] kVAs=[150, 150, ] %loadloss=1.126667 %noloadloss=0.28
New "Transformer.trf_5286834a" phases=3 windings=2 buses=[82038095002086.1.2.3, 82038095286834.1.2.3.4, ] conns=[delta, wye, ] kVs=[13.8, 0.38, ] taps=[1, 1.05, ] kVAs=[75, 75, ] %loadloss=1.34 %noloadloss=0.34
New "Transformer.trf_5286835a" phases=3 windings=2 buses=[82038115002086.1.2.3, 82038115286835.1.2.3.4, ] conns=[delta, wye, ] kVs=[13.8, 0.38, ] taps=[1, 1.05, ] kVAs=[112.5, 112.5, ] %loadloss=1.217778 %noloadloss=0.2977778
New "Transformer.trf_5286836a" phases=3 windings=2 buses=[82041105002086.1.2.3, 82041105286836.1.2.3.4, ] conns=[delta, wye, ] kVs=[13.8, 0.38, ] taps=[1, 1.05, ] kVAs=[75, 75, ] %loadloss=1.34 %noloadloss=0.34
New "Transformer.trf_5286837a" phases=3 windings=2 buses=[82041215002086.1.2.3, 82041215286837.1.2.3.4, ] conns=[delta, wye, ] kVs=[13.8, 0.38, ] taps=[1, 1.05, ] kVAs=[75, 75, ] %loadloss=1.34 %noloadloss=0.34
New "Transformer.trf_5286838a" phases=3 windings=2 buses=[82041905002086.1.2.3, 82041905286838.1.2.3.4, ] conns=[delta, wye, ] kVs=[13.8, 0.38, ] taps=[1, 1.05, ] kVAs=[75, 75, ] %loadloss=1.34 %noloadloss=0.34
New "Transformer.trf_5286839a" phases=3 windings=2 buses=[82038825002086.1.2.3, 82038825286839.1.2.3.4, ] conns=[delta, wye, ] kVs=[13.8, 0.38, ] taps=[1, 1.05, ] kVAs=[112.5, 112.5, ] %loadloss=1.217778 %noloadloss=0.2977778
New "Transformer.trf_5286840a" phases=3 windings=2 buses=[82037555002086.1.2.3, 82037555286840.1.2.3.4, ] conns=[delta, wye, ] kVs=[13.8, 0.38, ] taps=[1, 1.05, ] kVAs=[112.5, 112.5, ] %loadloss=1.217778 %noloadloss=0.2977778
New "Transformer.trf_5286841a" phases=3 windings=2 buses=[82039455002086.1.2.3, 82039455286841.1.2.3.4, ] conns=[delta, wye, ] kVs=[13.8, 0.38, ] taps=[1, 1.05, ] kVAs=[75, 75, ] %loadloss=1.34 %noloadloss=0.34
New "Transformer.trf_5286842a" phases=3 windings=2 buses=[82039695002086.1.2.3, 82039695286842.1.2.3.4, ] conns=[delta, wye, ] kVs=[13.8, 0.38, ] taps=[1, 1.05, ] kVAs=[75, 75, ] %loadloss=1.34 %noloadloss=0.34
New "Transformer.trf_5286843a" phases=3 windings=2 buses=[82042105002086.1.2.3, 82042105286843.1.2.3.4, ] conns=[delta, wye, ] kVs=[13.8, 0.38, ] taps=[1, 1.05, ] kVAs=[75, 75, ] %loadloss=1.34 %noloadloss=0.34
New "Transformer.trf_5286844a" phases=3 windings=2 buses=[82042165002086.1.2.3, 82042165286844.1.2.3.4, ] conns=[delta, wye, ] kVs=[13.8, 0.38, ] taps=[1, 1.05, ] kVAs=[75, 75, ] %loadloss=1.34 %noloadloss=0.34
New "Transformer.trf_5286845a" phases=3 windings=2 buses=[82042275002086.1.2.3, 82042275286845.1.2.3.4, ] conns=[delta, wye, ] kVs=[13.8, 0.38, ] taps=[1, 1.05, ] kVAs=[75, 75, ] %loadloss=1.34 %noloadloss=0.34
New "Transformer.trf_5286846a" phases=3 windings=2 buses=[82041545002086.1.2.3, 82041545286846.1.2.3.4, ] conns=[delta, wye, ] kVs=[13.8, 0.38, ] taps=[1, 1.05, ] kVAs=[75, 75, ] %loadloss=1.34 %noloadloss=0.34
New "Transformer.trf_5286857a" phases=3 windings=2 buses=[82062475002086.1.2.3, 82062475286857.1.2.3.4, ] conns=[delta, wye, ] kVs=[13.8, 0.38, ] taps=[1, 1.05, ] kVAs=[112.5, 112.5, ] %loadloss=1.217778 %noloadloss=0.2977778
New "Transformer.trf_5286858a" phases=3 windings=2 buses=[82064145002086.1.2.3, 82064145286858.1.2.3.4, ] conns=[delta, wye, ] kVs=[13.8, 0.38, ] taps=[1, 1.05, ] kVAs=[75, 75, ] %loadloss=1.34 %noloadloss=0.34
New "Transformer.trf_5286860a" phases=3 windings=2 buses=[82065235002086.1.2.3, 82065235286860.1.2.3.4, ] conns=[delta, wye, ] kVs=[13.8, 0.38, ] taps=[1, 1.05, ] kVAs=[75, 75, ] %loadloss=1.34 %noloadloss=0.34
New "Transformer.trf_5286861a" phases=3 windings=2 buses=[82064065002086.1.2.3, 82064065286861.1.2.3.4, ] conns=[delta, wye, ] kVs=[13.8, 0.38, ] taps=[1, 1.05, ] kVAs=[112.5, 112.5, ] %loadloss=1.217778 %noloadloss=0.2977778
New "Transformer.trf_5286862a" phases=3 windings=2 buses=[82065285002086.1.2.3, 82065285286862.1.2.3.4, ] conns=[delta, wye, ] kVs=[13.8, 0.38, ] taps=[1, 1.05, ] kVAs=[75, 75, ] %loadloss=1.34 %noloadloss=0.34
New "Transformer.trf_5286863a" phases=3 windings=2 buses=[82064825002086.1.2.3, 82064825286863.1.2.3.4, ] conns=[delta, wye, ] kVs=[13.8, 0.38, ] taps=[1, 1.05, ] kVAs=[75, 75, ] %loadloss=1.34 %noloadloss=0.34
New "Transformer.trf_5286864a" phases=3 windings=2 buses=[82064425002086.1.2.3, 82064425286864.1.2.3.4, ] conns=[delta, wye, ] kVs=[13.8, 0.38, ] taps=[1, 1.05, ] kVAs=[75, 75, ] %loadloss=1.34 %noloadloss=0.34
New "Transformer.trf_5286865a" phases=3 windings=2 buses=[82065005002086.1.2.3, 82065005286865.1.2.3.4, ] conns=[delta, wye, ] kVs=[13.8, 0.38, ] taps=[1, 1.05, ] kVAs=[75, 75, ] %loadloss=1.34 %noloadloss=0.34
New "Transformer.trf_5286866a" phases=3 windings=2 buses=[82063385002086.1.2.3, 82063385286866.1.2.3.4, ] conns=[delta, wye, ] kVs=[13.8, 0.38, ] taps=[1, 1.05, ] kVAs=[75, 75, ] %loadloss=1.34 %noloadloss=0.34
New "Transformer.trf_5286867a" phases=3 windings=2 buses=[82044385002086.1.2.3, 82044385286867.1.2.3.4, ] conns=[delta, wye, ] kVs=[13.8, 0.38, ] taps=[1, 1.05, ] kVAs=[75, 75, ] %loadloss=1.34 %noloadloss=0.34
New "Transformer.trf_5286871a" phases=3 windings=2 buses=[82055725002086.1.2.3, 82055725286871.1.2.3.4, ] conns=[delta, wye, ] kVs=[13.8, 0.38, ] taps=[1, 1.05, ] kVAs=[75, 75, ] %loadloss=1.34 %noloadloss=0.34
New "Transformer.trf_5286872a" phases=3 windings=2 buses=[82054825002086.1.2.3, 82054825286872.1.2.3.4, ] conns=[delta, wye, ] kVs=[13.8, 0.38, ] taps=[1, 1.05, ] kVAs=[75, 75, ] %loadloss=1.34 %noloadloss=0.34
New "Transformer.trf_5286890a" phases=3 windings=2 buses=[82056915002086.1.2.3, 82056915286890.1.2.3.4, ] conns=[delta, wye, ] kVs=[13.8, 0.38, ] taps=[1, 1.05, ] kVAs=[112.5, 112.5, ] %loadloss=1.217778 %noloadloss=0.2977778
New "Transformer.trf_5286891a" phases=3 windings=2 buses=[82056385002086.1.2.3, 82056385286891.1.2.3.4, ] conns=[delta, wye, ] kVs=[13.8, 0.38, ] taps=[1, 1.05, ] kVAs=[112.5, 112.5, ] %loadloss=1.217778 %noloadloss=0.2977778
New "Transformer.trf_5286914a" phases=3 windings=2 buses=[82053635002086.1.2.3, 82053635286914.1.2.3.4, ] conns=[delta, wye, ] kVs=[13.8, 0.38, ] taps=[1, 1.05, ] kVAs=[75, 75, ] %loadloss=1.34 %noloadloss=0.34
New "Transformer.trf_5286915a" phases=3 windings=2 buses=[82054535002086.1.2.3, 82054535286915.1.2.3.4, ] conns=[delta, wye, ] kVs=[13.8, 0.38, ] taps=[1, 1.05, ] kVAs=[112.5, 112.5, ] %loadloss=1.217778 %noloadloss=0.2977778
New "Transformer.trf_5286916a" phases=3 windings=2 buses=[82054235002086.1.2.3, 82054235286916.1.2.3.4, ] conns=[delta, wye, ] kVs=[13.8, 0.38, ] taps=[1, 1.05, ] kVAs=[112.5, 112.5, ] %loadloss=1.217778 %noloadloss=0.2977778
New "Transformer.trf_5286917a" phases=3 windings=2 buses=[82054305002086.1.2.3, 82054305286917.1.2.3.4, ] conns=[delta, wye, ] kVs=[13.8, 0.38, ] taps=[1, 1.05, ] kVAs=[112.5, 112.5, ] %loadloss=1.217778 %noloadloss=0.2977778
New "Transformer.trf_5286918a" phases=3 windings=2 buses=[82053975002086.1.2.3, 82053975286918.1.2.3.4, ] conns=[delta, wye, ] kVs=[13.8, 0.38, ] taps=[1, 1.05, ] kVAs=[112.5, 112.5, ] %loadloss=1.217778 %noloadloss=0.2977778
New "Transformer.trf_5286919a" phases=3 windings=2 buses=[82060535002086.1.2.3, 82060535286919.1.2.3.4, ] conns=[delta, wye, ] kVs=[13.8, 0.38, ] taps=[1, 1.05, ] kVAs=[112.5, 112.5, ] %loadloss=1.217778 %noloadloss=0.2977778
New "Transformer.trf_5286930a" phases=3 windings=2 buses=[82049375002086.1.2.3, 82049375286930.1.2.3.4, ] conns=[delta, wye, ] kVs=[13.8, 0.38, ] taps=[1, 1.05, ] kVAs=[112.5, 112.5, ] %loadloss=1.217778 %noloadloss=0.2977778
New "Transformer.trf_5286931a" phases=3 windings=2 buses=[82049545002086.1.2.3, 82049545286931.1.2.3.4, ] conns=[delta, wye, ] kVs=[13.8, 0.38, ] taps=[1, 1.05, ] kVAs=[112.5, 112.5, ] %loadloss=1.217778 %noloadloss=0.2977778
New "Transformer.trf_5286932a" phases=3 windings=2 buses=[82049765002086.1.2.3, 82049765286932.1.2.3.4, ] conns=[delta, wye, ] kVs=[13.8, 0.38, ] taps=[1, 1.05, ] kVAs=[150, 150, ] %loadloss=1.126667 %noloadloss=0.28
New "Transformer.trf_5286933a" phases=3 windings=2 buses=[82049805002086.1.2.3, 82049805286933.1.2.3.4, ] conns=[delta, wye, ] kVs=[13.8, 0.38, ] taps=[1, 1.05, ] kVAs=[75, 75, ] %loadloss=1.34 %noloadloss=0.34
New "Transformer.trf_5286934a" phases=3 windings=2 buses=[82049885002086.1.2.3, 82049885286934.1.2.3.4, ] conns=[delta, wye, ] kVs=[13.8, 0.38, ] taps=[1, 1.05, ] kVAs=[112.5, 112.5, ] %loadloss=1.217778 %noloadloss=0.2977778
New "Transformer.trf_5286935a" phases=3 windings=2 buses=[82050325002086.1.2.3, 82050325286935.1.2.3.4, ] conns=[delta, wye, ] kVs=[13.8, 0.38, ] taps=[1, 1.05, ] kVAs=[45, 45, ] %loadloss=1.522222 %noloadloss=0.3777778
New "Transformer.trf_5286936a" phases=3 windings=2 buses=[82049975002086.1.2.3, 82049975286936.1.2.3.4, ] conns=[delta, wye, ] kVs=[13.8, 0.38, ] taps=[1, 1.05, ] kVAs=[75, 75, ] %loadloss=1.34 %noloadloss=0.34
New "Transformer.trf_5286937a" phases=3 windings=2 buses=[82050035002086.1.2.3, 82050035286937.1.2.3.4, ] conns=[delta, wye, ] kVs=[13.8, 0.38, ] taps=[1, 1.05, ] kVAs=[45, 45, ] %loadloss=1.522222 %noloadloss=0.3777778
New "Transformer.trf_5286938a" phases=3 windings=2 buses=[82050465002086.1.2.3, 82050465286938.1.2.3.4, ] conns=[delta, wye, ] kVs=[13.8, 0.38, ] taps=[1, 1.05, ] kVAs=[112.5, 112.5, ] %loadloss=1.217778 %noloadloss=0.2977778
New "Transformer.trf_5286939a" phases=3 windings=2 buses=[82039815002086.1.2.3, 82039815286939.1.2.3.4, ] conns=[delta, wye, ] kVs=[13.8, 0.38, ] taps=[1, 1.05, ] kVAs=[75, 75, ] %loadloss=1.34 %noloadloss=0.34
New "Transformer.trf_5286940a" phases=3 windings=2 buses=[82039945002086.1.2.3, 82039945286940.1.2.3.4, ] conns=[delta, wye, ] kVs=[13.8, 0.38, ] taps=[1, 1.05, ] kVAs=[112.5, 112.5, ] %loadloss=1.217778 %noloadloss=0.2977778
New "Transformer.trf_5286941a" phases=3 windings=2 buses=[82040015002086.1.2.3, 82040015286941.1.2.3.4, ] conns=[delta, wye, ] kVs=[13.8, 0.38, ] taps=[1, 1.05, ] kVAs=[112.5, 112.5, ] %loadloss=1.217778 %noloadloss=0.2977778
New "Transformer.trf_5286942a" phases=3 windings=2 buses=[82040165002086.1.2.3, 82040165286942.1.2.3.4, ] conns=[delta, wye, ] kVs=[13.8, 0.38, ] taps=[1, 1.05, ] kVAs=[45, 45, ] %loadloss=1.522222 %noloadloss=0.3777778
New "Transformer.trf_5286943a" phases=3 windings=2 buses=[82040265002086.1.2.3, 82040265286943.1.2.3.4, ] conns=[delta, wye, ] kVs=[13.8, 0.38, ] taps=[1, 1.05, ] kVAs=[45, 45, ] %loadloss=1.522222 %noloadloss=0.3777778
New "Transformer.trf_5286944a" phases=3 windings=2 buses=[82039725002086.1.2.3, 82039725286944.1.2.3.4, ] conns=[delta, wye, ] kVs=[13.8, 0.38, ] taps=[1, 1.05, ] kVAs=[75, 75, ] %loadloss=1.34 %noloadloss=0.34
New "Transformer.trf_5286945a" phases=3 windings=2 buses=[82040415002086.1.2.3, 82040415286945.1.2.3.4, ] conns=[delta, wye, ] kVs=[13.8, 0.38, ] taps=[1, 1.05, ] kVAs=[112.5, 112.5, ] %loadloss=1.217778 %noloadloss=0.2977778
New "Transformer.trf_5286946a" phases=3 windings=2 buses=[82040575002086.1.2.3, 82040575286946.1.2.3.4, ] conns=[delta, wye, ] kVs=[13.8, 0.38, ] taps=[1, 1.05, ] kVAs=[45, 45, ] %loadloss=1.522222 %noloadloss=0.3777778
New "Transformer.trf_5440862a" phases=3 windings=2 buses=[81479715002086.1.2.3, 81479715440862.1.2.3.4, ] conns=[delta, wye, ] kVs=[13.8, 0.38, ] taps=[1, 1.05, ] kVAs=[75, 75, ] %loadloss=1.34 %noloadloss=0.34
New "Transformer.trf_5469845a" phases=3 windings=2 buses=[82032105002086.1.2.3, 82032105469845.1.2.3.4, ] conns=[delta, wye, ] kVs=[13.8, 0.38, ] taps=[1, 1.05, ] kVAs=[75, 75, ] %loadloss=1.34 %noloadloss=0.34
New "Transformer.trf_5470133a" phases=3 windings=2 buses=[82034125002086.1.2.3, 82034125470133.1.2.3.4, ] conns=[delta, wye, ] kVs=[13.8, 0.38, ] taps=[1, 1.05, ] kVAs=[45, 45, ] %loadloss=1.522222 %noloadloss=0.3777778
New "Transformer.trf_5472282a" phases=3 windings=2 buses=[87774405002086.1.2.3, 87774405472282.1.2.3.4, ] conns=[delta, wye, ] kVs=[13.8, 0.38, ] taps=[1, 1.05, ] kVAs=[112.5, 112.5, ] %loadloss=1.217778 %noloadloss=0.2977778
New "Transformer.trf_5479360a" phases=3 windings=2 buses=[81460535002086.1.2.3, 81460535479360.1.2.3.4, ] conns=[delta, wye, ] kVs=[13.8, 0.38, ] taps=[1, 1.05, ] kVAs=[30, 30, ] %loadloss=1.666667 %noloadloss=0.4333333
New "Transformer.trf_5491509a" phases=3 windings=2 buses=[88287355002086.1.2.3, 88287355491509.1.2.3.4, ] conns=[delta, wye, ] kVs=[13.8, 0.38, ] taps=[1, 1.05, ] kVAs=[112.5, 112.5, ] %loadloss=1.217778 %noloadloss=0.2977778
New "Transformer.trf_5499009a" phases=3 windings=2 buses=[82062715002086.1.2.3, 82062715499009.1.2.3.4, ] conns=[delta, wye, ] kVs=[13.8, 0.38, ] taps=[1, 1.05, ] kVAs=[112.5, 112.5, ] %loadloss=1.217778 %noloadloss=0.2977778
New "Transformer.trf_5485359a" phases=3 windings=2 buses=[88109845002086.1.2.3, 88109845485359.1.2.3.4, ] conns=[delta, wye, ] kVs=[13.8, 0.38, ] taps=[1, 1.05, ] kVAs=[112.5, 112.5, ] %loadloss=1.217778 %noloadloss=0.2977778
New "Transformer.trf_5502834a" phases=3 windings=2 buses=[82026575002086.1.2.3, 82026575502834.1.2.3.4, ] conns=[delta, wye, ] kVs=[13.8, 0.38, ] taps=[1, 1.05, ] kVAs=[75, 75, ] %loadloss=1.34 %noloadloss=0.34
New "Transformer.trf_5505307a" phases=3 windings=2 buses=[82034555002086.1.2.3, 82034555505307.1.2.3.4, ] conns=[delta, wye, ] kVs=[13.8, 0.38, ] taps=[1, 1.05, ] kVAs=[112.5, 112.5, ] %loadloss=1.217778 %noloadloss=0.2977778
New "Transformer.trf_5535535a" phases=3 windings=2 buses=[89701935002086.1.2.3, 89701935535535.1.2.3.4, ] conns=[delta, wye, ] kVs=[13.8, 0.38, ] taps=[1, 1.05, ] kVAs=[75, 75, ] %loadloss=1.34 %noloadloss=0.34
New "Transformer.trf_5537656a" phases=3 windings=2 buses=[89813615002086.1.2.3, 89813615537656.1.2.3.4, ] conns=[delta, wye, ] kVs=[13.8, 0.38, ] taps=[1, 1.05, ] kVAs=[225, 225, ] %loadloss=1.06 %noloadloss=0.2488889
New "Transformer.trf_5547722a" phases=3 windings=2 buses=[90017985002086.1.2.3, 90017985547722.1.2.3.4, ] conns=[delta, wye, ] kVs=[13.8, 0.38, ] taps=[1, 1.05, ] kVAs=[112.5, 112.5, ] %loadloss=1.217778 %noloadloss=0.2977778
New "Transformer.trf_5551754a" phases=3 windings=2 buses=[82061675002086.1.2.3, 82061675551754.1.2.3.4, ] conns=[delta, wye, ] kVs=[13.8, 0.38, ] taps=[1, 1.05, ] kVAs=[75, 75, ] %loadloss=1.34 %noloadloss=0.34
New "Transformer.trf_5552038a" phases=3 windings=2 buses=[90190165002086.1.2.3, 90190165552038.1.2.3.4, ] conns=[delta, wye, ] kVs=[13.8, 0.38, ] taps=[1, 1.05, ] kVAs=[150, 150, ] %loadloss=1.126667 %noloadloss=0.28
New "Transformer.trf_5552309a" phases=3 windings=2 buses=[82024125002086.1.2.3, 82024125552309.1.2.3.4, ] conns=[delta, wye, ] kVs=[13.8, 0.38, ] taps=[1, 1.05, ] kVAs=[75, 75, ] %loadloss=1.34 %noloadloss=0.34
New "Transformer.trf_5552553a" phases=3 windings=2 buses=[90214315002086.1.2.3, 90214315552553.1.2.3.4, ] conns=[delta, wye, ] kVs=[13.8, 0.38, ] taps=[1, 1.05, ] kVAs=[112.5, 112.5, ] %loadloss=1.217778 %noloadloss=0.2977778
New "Transformer.trf_5552819a" phases=3 windings=2 buses=[82032765002086.1.2.3, 82032765552819.1.2.3.4, ] conns=[delta, wye, ] kVs=[13.8, 0.38, ] taps=[1, 1.05, ] kVAs=[150, 150, ] %loadloss=1.126667 %noloadloss=0.28
New "Transformer.trf_5569878a" phases=3 windings=2 buses=[82055955002086.1.2.3, 82055955569878.1.2.3.4, ] conns=[delta, wye, ] kVs=[13.8, 0.38, ] taps=[1, 1.05, ] kVAs=[75, 75, ] %loadloss=1.34 %noloadloss=0.34
New "Transformer.trf_5555964a" phases=3 windings=2 buses=[90305705002086.1.2.3, 90305705555964.1.2.3.4, ] conns=[delta, wye, ] kVs=[13.8, 0.38, ] taps=[1, 1.05, ] kVAs=[150, 150, ] %loadloss=1.126667 %noloadloss=0.28
New "Transformer.trf_5557353a" phases=3 windings=2 buses=[82044325002086.1.2.3, 82044325557353.1.2.3.4, ] conns=[delta, wye, ] kVs=[13.8, 0.38, ] taps=[1, 1.05, ] kVAs=[75, 75, ] %loadloss=1.34 %noloadloss=0.34
New "Transformer.trf_5558213a" phases=3 windings=2 buses=[90349975002086.1.2.3, 90349975558213.1.2.3.4, ] conns=[delta, wye, ] kVs=[13.8, 0.38, ] taps=[1, 1.05, ] kVAs=[112.5, 112.5, ] %loadloss=1.217778 %noloadloss=0.2977778
New "Transformer.trf_5560489a" phases=3 windings=2 buses=[90409505002086.1.2.3, 90409505560489.1.2.3.4, ] conns=[delta, wye, ] kVs=[13.8, 0.38, ] taps=[1, 1.05, ] kVAs=[75, 75, ] %loadloss=1.34 %noloadloss=0.34
New "Transformer.trf_5574596a" phases=3 windings=2 buses=[82031945002086.1.2.3, 82031945574596.1.2.3.4, ] conns=[delta, wye, ] kVs=[13.8, 0.38, ] taps=[1, 1.05, ] kVAs=[112.5, 112.5, ] %loadloss=1.217778 %noloadloss=0.2977778
New "Transformer.trf_5577671a" phases=3 windings=2 buses=[90938795002086.1.2.3, 90938795577671.1.2.3.4, ] conns=[delta, wye, ] kVs=[13.8, 0.38, ] taps=[1, 1.05, ] kVAs=[112.5, 112.5, ] %loadloss=1.217778 %noloadloss=0.2977778
New "Transformer.trf_5286947a" phases=3 windings=2 buses=[82040855002086.1.2.3, 82040855286947.1.2.3.4, ] conns=[delta, wye, ] kVs=[13.8, 0.38, ] taps=[1, 1.05, ] kVAs=[75, 75, ] %loadloss=1.34 %noloadloss=0.34
New "Transformer.trf_5286958a" phases=3 windings=2 buses=[82031405002086.1.2.3, 82031405286958.1.2.3.4, ] conns=[delta, wye, ] kVs=[13.8, 0.38, ] taps=[1, 1.05, ] kVAs=[112.5, 112.5, ] %loadloss=1.217778 %noloadloss=0.2977778
New "Transformer.trf_5286959a" phases=3 windings=2 buses=[82031445002086.1.2.3, 82031445286959.1.2.3.4, ] conns=[delta, wye, ] kVs=[13.8, 0.38, ] taps=[1, 1.05, ] kVAs=[112.5, 112.5, ] %loadloss=1.217778 %noloadloss=0.2977778
New "Transformer.trf_5286960a" phases=3 windings=2 buses=[82033945002086.1.2.3, 82033945286960.1.2.3.4, ] conns=[delta, wye, ] kVs=[13.8, 0.38, ] taps=[1, 1.05, ] kVAs=[112.5, 112.5, ] %loadloss=1.217778 %noloadloss=0.2977778
New "Transformer.trf_5286961a" phases=3 windings=2 buses=[97400945002086.1.2.3, 97400945286961.1.2.3.4, ] conns=[delta, wye, ] kVs=[13.8, 0.38, ] taps=[1, 1.05, ] kVAs=[150, 150, ] %loadloss=1.126667 %noloadloss=0.28
New "Transformer.trf_5286962a" phases=3 windings=2 buses=[82034445002086.1.2.3, 82034445286962.1.2.3.4, ] conns=[delta, wye, ] kVs=[13.8, 0.38, ] taps=[1, 1.05, ] kVAs=[45, 45, ] %loadloss=1.522222 %noloadloss=0.3777778
New "Transformer.trf_5286963a" phases=3 windings=2 buses=[82035255002086.1.2.3, 82035255286963.1.2.3.4, ] conns=[delta, wye, ] kVs=[13.8, 0.38, ] taps=[1, 1.05, ] kVAs=[75, 75, ] %loadloss=1.34 %noloadloss=0.34
New "Transformer.trf_5286964a" phases=3 windings=2 buses=[82036275002086.1.2.3, 82036275286964.1.2.3.4, ] conns=[delta, wye, ] kVs=[13.8, 0.38, ] taps=[1, 1.05, ] kVAs=[112.5, 112.5, ] %loadloss=1.217778 %noloadloss=0.2977778
New "Transformer.trf_5286965a" phases=3 windings=2 buses=[82035485002086.1.2.3, 82035485286965.1.2.3.4, ] conns=[delta, wye, ] kVs=[13.8, 0.38, ] taps=[1, 1.05, ] kVAs=[112.5, 112.5, ] %loadloss=1.217778 %noloadloss=0.2977778
New "Transformer.trf_5286966a" phases=3 windings=2 buses=[82036045002086.1.2.3, 82036045286966.1.2.3.4, ] conns=[delta, wye, ] kVs=[13.8, 0.38, ] taps=[1, 1.05, ] kVAs=[112.5, 112.5, ] %loadloss=1.217778 %noloadloss=0.2977778
New "Transformer.trf_5286967a" phases=3 windings=2 buses=[82029725002086.1.2.3, 82029725286967.1.2.3.4, ] conns=[delta, wye, ] kVs=[13.8, 0.38, ] taps=[1, 1.05, ] kVAs=[45, 45, ] %loadloss=1.522222 %noloadloss=0.3777778
New "Transformer.trf_5647498a" phases=3 windings=2 buses=[93119985002086.1.2.3, 93119985647498.1.2.3.4, ] conns=[delta, wye, ] kVs=[13.8, 0.38, ] taps=[1, 1.05, ] kVAs=[300, 300, ] %loadloss=0.99 %noloadloss=0.2333333
New "Transformer.trf_5688575a" phases=3 windings=2 buses=[82054155002086.1.2.3, 82054155688575.1.2.3.4, ] conns=[delta, wye, ] kVs=[13.8, 0.38, ] taps=[1, 1.05, ] kVAs=[112.5, 112.5, ] %loadloss=1.217778 %noloadloss=0.2977778
New "Transformer.trf_5675373a" phases=3 windings=2 buses=[93945325002086.1.2.3, 93945325675373.1.2.3.4, ] conns=[delta, wye, ] kVs=[13.8, 0.38, ] taps=[1, 1.05, ] kVAs=[150, 150, ] %loadloss=1.126667 %noloadloss=0.28
New "Transformer.trf_5323939a" phases=3 windings=2 buses=[84503635002086.1.2.3, 84503635323939.1.2.3.4, ] conns=[delta, wye, ] kVs=[13.8, 0.38, ] taps=[1, 1.05, ] kVAs=[112.5, 112.5, ] %loadloss=1.217778 %noloadloss=0.2977778
New "Transformer.trf_5702287a" phases=3 windings=2 buses=[90017935002086.1.2.3, 90017935702287.1.2.3.4, ] conns=[delta, wye, ] kVs=[13.8, 0.38, ] taps=[1, 1.05, ] kVAs=[45, 45, ] %loadloss=1.522222 %noloadloss=0.3777778
New "Transformer.trf_5713817a" phases=3 windings=2 buses=[82034385002086.1.2.3, 82034385713817.1.2.3.4, ] conns=[delta, wye, ] kVs=[13.8, 0.38, ] taps=[1, 1.05, ] kVAs=[225, 225, ] %loadloss=1.06 %noloadloss=0.2488889
New "Transformer.trf_5719448a" phases=3 windings=2 buses=[95141555002086.1.2.3, 95141555719448.1.2.3.4, ] conns=[delta, wye, ] kVs=[13.8, 0.38, ] taps=[1, 1.05, ] kVAs=[225, 225, ] %loadloss=1.06 %noloadloss=0.2488889
New "Transformer.trf_5333902a" phases=3 windings=2 buses=[85167275002086.1.2.3, 85167275333902.1.2.3.4, ] conns=[delta, wye, ] kVs=[13.8, 0.38, ] taps=[1, 1.05, ] kVAs=[112.5, 112.5, ] %loadloss=1.217778 %noloadloss=0.2977778
New "Transformer.trf_5740255a" phases=3 windings=2 buses=[82056945002086.1.2.3, 82056945740255.1.2.3.4, ] conns=[delta, wye, ] kVs=[13.8, 0.38, ] taps=[1, 1.05, ] kVAs=[112.5, 112.5, ] %loadloss=1.217778 %noloadloss=0.2977778
New "Transformer.trf_5740270a" phases=3 windings=2 buses=[96033635002086.1.2.3, 96033635740270.1.2.3.4, ] conns=[delta, wye, ] kVs=[13.8, 0.38, ] taps=[1, 1.05, ] kVAs=[75, 75, ] %loadloss=1.34 %noloadloss=0.34
New "Transformer.trf_5744153a" phases=3 windings=2 buses=[96264655002086.1.2.3, 96264655744153.1.2.3.4, ] conns=[delta, wye, ] kVs=[13.8, 0.38, ] taps=[1, 1.05, ] kVAs=[112.5, 112.5, ] %loadloss=1.217778 %noloadloss=0.2977778
New "Transformer.trf_5444435a" phases=3 windings=2 buses=[81481405002086.1.2.3, 81481405444435.1.2.3.4, ] conns=[delta, wye, ] kVs=[13.8, 0.38, ] taps=[1, 1.05, ] kVAs=[112.5, 112.5, ] %loadloss=1.217778 %noloadloss=0.2977778
